
---------- Begin Simulation Statistics ----------
simSeconds                                   0.297854                       # Number of seconds simulated (Second)
simTicks                                 297854450500                       # Number of ticks simulated (Tick)
finalTick                                297854450500                       # Number of ticks from beginning of simulation (restored from checkpoints and never reset) (Tick)
simFreq                                  1000000000000                       # The number of ticks per simulated second ((Tick/Second))
hostSeconds                                   3092.38                       # Real time elapsed on the host (Second)
hostTickRate                                 96318954                       # The number of ticks simulated per host second (ticks/s) ((Tick/Second))
hostMemory                                    8789052                       # Number of bytes of host memory used (Byte)
simInsts                                    500000000                       # Number of instructions simulated (Count)
simOps                                      881085600                       # Number of ops (including micro ops) simulated (Count)
hostInstRate                                   161688                       # Simulator instruction rate (inst/s) ((Count/Second))
hostOpRate                                     284922                       # Simulator op (including micro ops) rate (op/s) ((Count/Second))
system.clk_domain.clock                          1000                       # Clock period in ticks (Tick)
system.cpu.numCycles                        595708902                       # Number of cpu cycles simulated (Cycle)
system.cpu.numWorkItemsStarted                      0                       # Number of work items this cpu started (Count)
system.cpu.numWorkItemsCompleted                    0                       # Number of work items this cpu completed (Count)
system.cpu.instsAdded                      1635741554                       # Number of instructions added to the IQ (excludes non-spec) (Count)
system.cpu.nonSpecInstsAdded                     3856                       # Number of non-speculative instructions added to the IQ (Count)
system.cpu.instsIssued                     1453271073                       # Number of instructions issued (Count)
system.cpu.squashedInstsIssued                1389243                       # Number of squashed instructions issued (Count)
system.cpu.squashedInstsExamined            754659762                       # Number of squashed instructions iterated over during squash; mainly for profiling (Count)
system.cpu.squashedOperandsExamined        1176093442                       # Number of squashed operands that are examined and possibly removed from graph (Count)
system.cpu.squashedNonSpecRemoved                3061                       # Number of squashed non-spec instructions that were removed (Count)
system.cpu.numIssuedDist::samples           595569881                       # Number of insts issued each cycle (Count)
system.cpu.numIssuedDist::mean               2.440135                       # Number of insts issued each cycle (Count)
system.cpu.numIssuedDist::stdev              2.467353                       # Number of insts issued each cycle (Count)
system.cpu.numIssuedDist::underflows                0      0.00%      0.00% # Number of insts issued each cycle (Count)
system.cpu.numIssuedDist::0                 234315787     39.34%     39.34% # Number of insts issued each cycle (Count)
system.cpu.numIssuedDist::1                  39119818      6.57%     45.91% # Number of insts issued each cycle (Count)
system.cpu.numIssuedDist::2                  50745993      8.52%     54.43% # Number of insts issued each cycle (Count)
system.cpu.numIssuedDist::3                  59615105     10.01%     64.44% # Number of insts issued each cycle (Count)
system.cpu.numIssuedDist::4                  67302274     11.30%     75.74% # Number of insts issued each cycle (Count)
system.cpu.numIssuedDist::5                  57842049      9.71%     85.45% # Number of insts issued each cycle (Count)
system.cpu.numIssuedDist::6                  45337799      7.61%     93.07% # Number of insts issued each cycle (Count)
system.cpu.numIssuedDist::7                  26960629      4.53%     97.59% # Number of insts issued each cycle (Count)
system.cpu.numIssuedDist::8                  14330427      2.41%    100.00% # Number of insts issued each cycle (Count)
system.cpu.numIssuedDist::overflows                 0      0.00%    100.00% # Number of insts issued each cycle (Count)
system.cpu.numIssuedDist::min_value                 0                       # Number of insts issued each cycle (Count)
system.cpu.numIssuedDist::max_value                 8                       # Number of insts issued each cycle (Count)
system.cpu.numIssuedDist::total             595569881                       # Number of insts issued each cycle (Count)
system.cpu.statFuBusy::No_OpClass                   0      0.00%      0.00% # attempts to use FU when none available (Count)
system.cpu.statFuBusy::IntAlu                10055588     90.90%     90.90% # attempts to use FU when none available (Count)
system.cpu.statFuBusy::IntMult                      0      0.00%     90.90% # attempts to use FU when none available (Count)
system.cpu.statFuBusy::IntDiv                       0      0.00%     90.90% # attempts to use FU when none available (Count)
system.cpu.statFuBusy::FloatAdd                     0      0.00%     90.90% # attempts to use FU when none available (Count)
system.cpu.statFuBusy::FloatCmp                     0      0.00%     90.90% # attempts to use FU when none available (Count)
system.cpu.statFuBusy::FloatCvt                     6      0.00%     90.90% # attempts to use FU when none available (Count)
system.cpu.statFuBusy::FloatMult                    0      0.00%     90.90% # attempts to use FU when none available (Count)
system.cpu.statFuBusy::FloatMultAcc                 0      0.00%     90.90% # attempts to use FU when none available (Count)
system.cpu.statFuBusy::FloatDiv                     0      0.00%     90.90% # attempts to use FU when none available (Count)
system.cpu.statFuBusy::FloatMisc                    0      0.00%     90.90% # attempts to use FU when none available (Count)
system.cpu.statFuBusy::FloatSqrt                    0      0.00%     90.90% # attempts to use FU when none available (Count)
system.cpu.statFuBusy::SimdAdd                      0      0.00%     90.90% # attempts to use FU when none available (Count)
system.cpu.statFuBusy::SimdAddAcc                   0      0.00%     90.90% # attempts to use FU when none available (Count)
system.cpu.statFuBusy::SimdAlu                      5      0.00%     90.90% # attempts to use FU when none available (Count)
system.cpu.statFuBusy::SimdCmp                      0      0.00%     90.90% # attempts to use FU when none available (Count)
system.cpu.statFuBusy::SimdCvt                      4      0.00%     90.90% # attempts to use FU when none available (Count)
system.cpu.statFuBusy::SimdMisc                     0      0.00%     90.90% # attempts to use FU when none available (Count)
system.cpu.statFuBusy::SimdMult                     0      0.00%     90.90% # attempts to use FU when none available (Count)
system.cpu.statFuBusy::SimdMultAcc                  0      0.00%     90.90% # attempts to use FU when none available (Count)
system.cpu.statFuBusy::SimdShift                    0      0.00%     90.90% # attempts to use FU when none available (Count)
system.cpu.statFuBusy::SimdShiftAcc                 0      0.00%     90.90% # attempts to use FU when none available (Count)
system.cpu.statFuBusy::SimdDiv                      0      0.00%     90.90% # attempts to use FU when none available (Count)
system.cpu.statFuBusy::SimdSqrt                     0      0.00%     90.90% # attempts to use FU when none available (Count)
system.cpu.statFuBusy::SimdFloatAdd                 0      0.00%     90.90% # attempts to use FU when none available (Count)
system.cpu.statFuBusy::SimdFloatAlu                 0      0.00%     90.90% # attempts to use FU when none available (Count)
system.cpu.statFuBusy::SimdFloatCmp                 0      0.00%     90.90% # attempts to use FU when none available (Count)
system.cpu.statFuBusy::SimdFloatCvt                 0      0.00%     90.90% # attempts to use FU when none available (Count)
system.cpu.statFuBusy::SimdFloatDiv                 0      0.00%     90.90% # attempts to use FU when none available (Count)
system.cpu.statFuBusy::SimdFloatMisc                0      0.00%     90.90% # attempts to use FU when none available (Count)
system.cpu.statFuBusy::SimdFloatMult                0      0.00%     90.90% # attempts to use FU when none available (Count)
system.cpu.statFuBusy::SimdFloatMultAcc             0      0.00%     90.90% # attempts to use FU when none available (Count)
system.cpu.statFuBusy::SimdFloatSqrt                0      0.00%     90.90% # attempts to use FU when none available (Count)
system.cpu.statFuBusy::SimdReduceAdd                0      0.00%     90.90% # attempts to use FU when none available (Count)
system.cpu.statFuBusy::SimdReduceAlu                0      0.00%     90.90% # attempts to use FU when none available (Count)
system.cpu.statFuBusy::SimdReduceCmp                0      0.00%     90.90% # attempts to use FU when none available (Count)
system.cpu.statFuBusy::SimdFloatReduceAdd            0      0.00%     90.90% # attempts to use FU when none available (Count)
system.cpu.statFuBusy::SimdFloatReduceCmp            0      0.00%     90.90% # attempts to use FU when none available (Count)
system.cpu.statFuBusy::SimdAes                      0      0.00%     90.90% # attempts to use FU when none available (Count)
system.cpu.statFuBusy::SimdAesMix                   0      0.00%     90.90% # attempts to use FU when none available (Count)
system.cpu.statFuBusy::SimdSha1Hash                 0      0.00%     90.90% # attempts to use FU when none available (Count)
system.cpu.statFuBusy::SimdSha1Hash2                0      0.00%     90.90% # attempts to use FU when none available (Count)
system.cpu.statFuBusy::SimdSha256Hash               0      0.00%     90.90% # attempts to use FU when none available (Count)
system.cpu.statFuBusy::SimdSha256Hash2              0      0.00%     90.90% # attempts to use FU when none available (Count)
system.cpu.statFuBusy::SimdShaSigma2                0      0.00%     90.90% # attempts to use FU when none available (Count)
system.cpu.statFuBusy::SimdShaSigma3                0      0.00%     90.90% # attempts to use FU when none available (Count)
system.cpu.statFuBusy::SimdPredAlu                  0      0.00%     90.90% # attempts to use FU when none available (Count)
system.cpu.statFuBusy::MemRead                 931766      8.42%     99.32% # attempts to use FU when none available (Count)
system.cpu.statFuBusy::MemWrite                 74014      0.67%     99.99% # attempts to use FU when none available (Count)
system.cpu.statFuBusy::FloatMemRead               295      0.00%    100.00% # attempts to use FU when none available (Count)
system.cpu.statFuBusy::FloatMemWrite              542      0.00%    100.00% # attempts to use FU when none available (Count)
system.cpu.statFuBusy::IprAccess                    0      0.00%    100.00% # attempts to use FU when none available (Count)
system.cpu.statFuBusy::InstPrefetch                 0      0.00%    100.00% # attempts to use FU when none available (Count)
system.cpu.statIssuedInstType_0::No_OpClass      1503546      0.10%      0.10% # Number of instructions issued per FU type, per thread (Count)
system.cpu.statIssuedInstType_0::IntAlu    1126264730     77.50%     77.60% # Number of instructions issued per FU type, per thread (Count)
system.cpu.statIssuedInstType_0::IntMult     10967026      0.75%     78.36% # Number of instructions issued per FU type, per thread (Count)
system.cpu.statIssuedInstType_0::IntDiv         33180      0.00%     78.36% # Number of instructions issued per FU type, per thread (Count)
system.cpu.statIssuedInstType_0::FloatAdd        21565      0.00%     78.36% # Number of instructions issued per FU type, per thread (Count)
system.cpu.statIssuedInstType_0::FloatCmp            0      0.00%     78.36% # Number of instructions issued per FU type, per thread (Count)
system.cpu.statIssuedInstType_0::FloatCvt          562      0.00%     78.36% # Number of instructions issued per FU type, per thread (Count)
system.cpu.statIssuedInstType_0::FloatMult            0      0.00%     78.36% # Number of instructions issued per FU type, per thread (Count)
system.cpu.statIssuedInstType_0::FloatMultAcc            0      0.00%     78.36% # Number of instructions issued per FU type, per thread (Count)
system.cpu.statIssuedInstType_0::FloatDiv            0      0.00%     78.36% # Number of instructions issued per FU type, per thread (Count)
system.cpu.statIssuedInstType_0::FloatMisc            0      0.00%     78.36% # Number of instructions issued per FU type, per thread (Count)
system.cpu.statIssuedInstType_0::FloatSqrt            0      0.00%     78.36% # Number of instructions issued per FU type, per thread (Count)
system.cpu.statIssuedInstType_0::SimdAdd            0      0.00%     78.36% # Number of instructions issued per FU type, per thread (Count)
system.cpu.statIssuedInstType_0::SimdAddAcc            0      0.00%     78.36% # Number of instructions issued per FU type, per thread (Count)
system.cpu.statIssuedInstType_0::SimdAlu           58      0.00%     78.36% # Number of instructions issued per FU type, per thread (Count)
system.cpu.statIssuedInstType_0::SimdCmp            0      0.00%     78.36% # Number of instructions issued per FU type, per thread (Count)
system.cpu.statIssuedInstType_0::SimdCvt           71      0.00%     78.36% # Number of instructions issued per FU type, per thread (Count)
system.cpu.statIssuedInstType_0::SimdMisc       322740      0.02%     78.38% # Number of instructions issued per FU type, per thread (Count)
system.cpu.statIssuedInstType_0::SimdMult            0      0.00%     78.38% # Number of instructions issued per FU type, per thread (Count)
system.cpu.statIssuedInstType_0::SimdMultAcc            0      0.00%     78.38% # Number of instructions issued per FU type, per thread (Count)
system.cpu.statIssuedInstType_0::SimdShift            0      0.00%     78.38% # Number of instructions issued per FU type, per thread (Count)
system.cpu.statIssuedInstType_0::SimdShiftAcc            0      0.00%     78.38% # Number of instructions issued per FU type, per thread (Count)
system.cpu.statIssuedInstType_0::SimdDiv            0      0.00%     78.38% # Number of instructions issued per FU type, per thread (Count)
system.cpu.statIssuedInstType_0::SimdSqrt            0      0.00%     78.38% # Number of instructions issued per FU type, per thread (Count)
system.cpu.statIssuedInstType_0::SimdFloatAdd       161466      0.01%     78.39% # Number of instructions issued per FU type, per thread (Count)
system.cpu.statIssuedInstType_0::SimdFloatAlu            0      0.00%     78.39% # Number of instructions issued per FU type, per thread (Count)
system.cpu.statIssuedInstType_0::SimdFloatCmp            1      0.00%     78.39% # Number of instructions issued per FU type, per thread (Count)
system.cpu.statIssuedInstType_0::SimdFloatCvt       363279      0.02%     78.42% # Number of instructions issued per FU type, per thread (Count)
system.cpu.statIssuedInstType_0::SimdFloatDiv        12475      0.00%     78.42% # Number of instructions issued per FU type, per thread (Count)
system.cpu.statIssuedInstType_0::SimdFloatMisc            0      0.00%     78.42% # Number of instructions issued per FU type, per thread (Count)
system.cpu.statIssuedInstType_0::SimdFloatMult        29667      0.00%     78.42% # Number of instructions issued per FU type, per thread (Count)
system.cpu.statIssuedInstType_0::SimdFloatMultAcc            0      0.00%     78.42% # Number of instructions issued per FU type, per thread (Count)
system.cpu.statIssuedInstType_0::SimdFloatSqrt            0      0.00%     78.42% # Number of instructions issued per FU type, per thread (Count)
system.cpu.statIssuedInstType_0::SimdReduceAdd            0      0.00%     78.42% # Number of instructions issued per FU type, per thread (Count)
system.cpu.statIssuedInstType_0::SimdReduceAlu            0      0.00%     78.42% # Number of instructions issued per FU type, per thread (Count)
system.cpu.statIssuedInstType_0::SimdReduceCmp            0      0.00%     78.42% # Number of instructions issued per FU type, per thread (Count)
system.cpu.statIssuedInstType_0::SimdFloatReduceAdd            0      0.00%     78.42% # Number of instructions issued per FU type, per thread (Count)
system.cpu.statIssuedInstType_0::SimdFloatReduceCmp            0      0.00%     78.42% # Number of instructions issued per FU type, per thread (Count)
system.cpu.statIssuedInstType_0::SimdAes            0      0.00%     78.42% # Number of instructions issued per FU type, per thread (Count)
system.cpu.statIssuedInstType_0::SimdAesMix            0      0.00%     78.42% # Number of instructions issued per FU type, per thread (Count)
system.cpu.statIssuedInstType_0::SimdSha1Hash            0      0.00%     78.42% # Number of instructions issued per FU type, per thread (Count)
system.cpu.statIssuedInstType_0::SimdSha1Hash2            0      0.00%     78.42% # Number of instructions issued per FU type, per thread (Count)
system.cpu.statIssuedInstType_0::SimdSha256Hash            0      0.00%     78.42% # Number of instructions issued per FU type, per thread (Count)
system.cpu.statIssuedInstType_0::SimdSha256Hash2            0      0.00%     78.42% # Number of instructions issued per FU type, per thread (Count)
system.cpu.statIssuedInstType_0::SimdShaSigma2            0      0.00%     78.42% # Number of instructions issued per FU type, per thread (Count)
system.cpu.statIssuedInstType_0::SimdShaSigma3            0      0.00%     78.42% # Number of instructions issued per FU type, per thread (Count)
system.cpu.statIssuedInstType_0::SimdPredAlu            0      0.00%     78.42% # Number of instructions issued per FU type, per thread (Count)
system.cpu.statIssuedInstType_0::MemRead    275971376     18.99%     97.41% # Number of instructions issued per FU type, per thread (Count)
system.cpu.statIssuedInstType_0::MemWrite     37114666      2.55%     99.97% # Number of instructions issued per FU type, per thread (Count)
system.cpu.statIssuedInstType_0::FloatMemRead       233466      0.02%     99.98% # Number of instructions issued per FU type, per thread (Count)
system.cpu.statIssuedInstType_0::FloatMemWrite       271199      0.02%    100.00% # Number of instructions issued per FU type, per thread (Count)
system.cpu.statIssuedInstType_0::IprAccess            0      0.00%    100.00% # Number of instructions issued per FU type, per thread (Count)
system.cpu.statIssuedInstType_0::InstPrefetch            0      0.00%    100.00% # Number of instructions issued per FU type, per thread (Count)
system.cpu.statIssuedInstType_0::total     1453271073                       # Number of instructions issued per FU type, per thread (Count)
system.cpu.issueRate                         2.439566                       # Inst issue rate ((Count/Cycle))
system.cpu.fuBusy                            11062220                       # FU busy when requested (Count)
system.cpu.fuBusyRate                        0.007612                       # FU busy rate (busy events/executed inst) ((Count/Count))
system.cpu.intInstQueueReads               3511704344                       # Number of integer instruction queue reads (Count)
system.cpu.intInstQueueWrites              2388218497                       # Number of integer instruction queue writes (Count)
system.cpu.intInstQueueWakeupAccesses      1378542739                       # Number of integer instruction queue wakeup accesses (Count)
system.cpu.fpInstQueueReads                   2859145                       # Number of floating instruction queue reads (Count)
system.cpu.fpInstQueueWrites                  2194150                       # Number of floating instruction queue writes (Count)
system.cpu.fpInstQueueWakeupAccesses          1409080                       # Number of floating instruction queue wakeup accesses (Count)
system.cpu.vecInstQueueReads                        0                       # Number of vector instruction queue reads (Count)
system.cpu.vecInstQueueWrites                       0                       # Number of vector instruction queue writes (Count)
system.cpu.vecInstQueueWakeupAccesses               0                       # Number of vector instruction queue wakeup accesses (Count)
system.cpu.intAluAccesses                  1461399790                       # Number of integer alu accesses (Count)
system.cpu.fpAluAccesses                      1429957                       # Number of floating point alu accesses (Count)
system.cpu.vecAluAccesses                           0                       # Number of vector alu accesses (Count)
system.cpu.numInsts                        1410182435                       # Number of executed instructions (Count)
system.cpu.numLoadInsts                     262619068                       # Number of load instructions executed (Count)
system.cpu.numSquashedInsts                  43088637                       # Number of squashed instructions skipped in execute (Count)
system.cpu.numSwp                                   0                       # Number of swp insts executed (Count)
system.cpu.numNop                                   0                       # Number of nop insts executed (Count)
system.cpu.numRefs                          298546604                       # Number of memory reference insts executed (Count)
system.cpu.numBranches                      121622856                       # Number of branches executed (Count)
system.cpu.numStoreInsts                     35927536                       # Number of stores executed (Count)
system.cpu.numRate                           2.367234                       # Inst execution rate ((Count/Cycle))
system.cpu.timesIdled                            1322                       # Number of times that the entire CPU went into an idle state and unscheduled itself (Count)
system.cpu.idleCycles                          139021                       # Total number of cycles that the CPU has spent unscheduled due to idling (Cycle)
system.cpu.committedInsts                   500000000                       # Number of Instructions Simulated (Count)
system.cpu.committedOps                     881085600                       # Number of Ops (including micro ops) Simulated (Count)
system.cpu.cpi                               1.191418                       # CPI: Cycles Per Instruction ((Cycle/Count))
system.cpu.totalCpi                          1.191418                       # CPI: Total CPI of All Threads ((Cycle/Count))
system.cpu.ipc                               0.839336                       # IPC: Instructions Per Cycle ((Count/Cycle))
system.cpu.totalIpc                          0.839336                       # IPC: Total IPC of All Threads ((Count/Cycle))
system.cpu.intRegfileReads                 1892548457                       # Number of integer regfile reads (Count)
system.cpu.intRegfileWrites                1098952804                       # Number of integer regfile writes (Count)
system.cpu.fpRegfileReads                     1957200                       # Number of floating regfile reads (Count)
system.cpu.fpRegfileWrites                     995953                       # Number of floating regfile writes (Count)
system.cpu.ccRegfileReads                   698684422                       # number of cc regfile reads (Count)
system.cpu.ccRegfileWrites                  448862873                       # number of cc regfile writes (Count)
system.cpu.miscRegfileReads                 581231500                       # number of misc regfile reads (Count)
system.cpu.miscRegfileWrites                      225                       # number of misc regfile writes (Count)
system.cpu.MemDepUnit__0.insertedLoads      301410606                       # Number of loads inserted to the mem dependence unit. (Count)
system.cpu.MemDepUnit__0.insertedStores      43287510                       # Number of stores inserted to the mem dependence unit. (Count)
system.cpu.MemDepUnit__0.conflictingLoads      8441591                       # Number of conflicting loads. (Count)
system.cpu.MemDepUnit__0.conflictingStores      3777110                       # Number of conflicting stores. (Count)
system.cpu.MemDepUnit__1.insertedLoads              0                       # Number of loads inserted to the mem dependence unit. (Count)
system.cpu.MemDepUnit__1.insertedStores             0                       # Number of stores inserted to the mem dependence unit. (Count)
system.cpu.MemDepUnit__1.conflictingLoads            0                       # Number of conflicting loads. (Count)
system.cpu.MemDepUnit__1.conflictingStores            0                       # Number of conflicting stores. (Count)
system.cpu.MemDepUnit__2.insertedLoads              0                       # Number of loads inserted to the mem dependence unit. (Count)
system.cpu.MemDepUnit__2.insertedStores             0                       # Number of stores inserted to the mem dependence unit. (Count)
system.cpu.MemDepUnit__2.conflictingLoads            0                       # Number of conflicting loads. (Count)
system.cpu.MemDepUnit__2.conflictingStores            0                       # Number of conflicting stores. (Count)
system.cpu.MemDepUnit__3.insertedLoads              0                       # Number of loads inserted to the mem dependence unit. (Count)
system.cpu.MemDepUnit__3.insertedStores             0                       # Number of stores inserted to the mem dependence unit. (Count)
system.cpu.MemDepUnit__3.conflictingLoads            0                       # Number of conflicting loads. (Count)
system.cpu.MemDepUnit__3.conflictingStores            0                       # Number of conflicting stores. (Count)
system.cpu.branchPred.lookups               198774831                       # Number of BP lookups (Count)
system.cpu.branchPred.condPredicted         189243146                       # Number of conditional branches predicted (Count)
system.cpu.branchPred.condIncorrect          20335280                       # Number of conditional branches incorrect (Count)
system.cpu.branchPred.BTBLookups            117265665                       # Number of BTB lookups (Count)
system.cpu.branchPred.BTBHits               117154962                       # Number of BTB hits (Count)
system.cpu.branchPred.BTBHitRatio            0.999056                       # BTB Hit Ratio (Ratio)
system.cpu.branchPred.RASUsed                 3872584                       # Number of times the RAS was used to get a target. (Count)
system.cpu.branchPred.RASIncorrect                 27                       # Number of incorrect RAS predictions. (Count)
system.cpu.branchPred.indirectLookups          133836                       # Number of indirect predictor lookups. (Count)
system.cpu.branchPred.indirectHits             126161                       # Number of indirect target hits. (Count)
system.cpu.branchPred.indirectMisses             7675                       # Number of indirect misses. (Count)
system.cpu.branchPred.indirectMispredicted          705                       # Number of mispredicted indirect branches. (Count)
system.cpu.commit.commitSquashedInsts       754628143                       # The number of squashed insts skipped by commit (Count)
system.cpu.commit.commitNonSpecStalls             795                       # The number of times commit has been forced to stall to communicate backwards (Count)
system.cpu.commit.branchMispredicts          20334559                       # The number of times a branch was mispredicted (Count)
system.cpu.commit.numCommittedDist::samples    488847924                       # Number of insts commited each cycle (Count)
system.cpu.commit.numCommittedDist::mean     1.802372                       # Number of insts commited each cycle (Count)
system.cpu.commit.numCommittedDist::stdev     2.697022                       # Number of insts commited each cycle (Count)
system.cpu.commit.numCommittedDist::underflows            0      0.00%      0.00% # Number of insts commited each cycle (Count)
system.cpu.commit.numCommittedDist::0       244407337     50.00%     50.00% # Number of insts commited each cycle (Count)
system.cpu.commit.numCommittedDist::1        95286671     19.49%     69.49% # Number of insts commited each cycle (Count)
system.cpu.commit.numCommittedDist::2        24104072      4.93%     74.42% # Number of insts commited each cycle (Count)
system.cpu.commit.numCommittedDist::3        32181964      6.58%     81.00% # Number of insts commited each cycle (Count)
system.cpu.commit.numCommittedDist::4        16397654      3.35%     84.36% # Number of insts commited each cycle (Count)
system.cpu.commit.numCommittedDist::5         6790954      1.39%     85.75% # Number of insts commited each cycle (Count)
system.cpu.commit.numCommittedDist::6         4979509      1.02%     86.76% # Number of insts commited each cycle (Count)
system.cpu.commit.numCommittedDist::7         5975651      1.22%     87.99% # Number of insts commited each cycle (Count)
system.cpu.commit.numCommittedDist::8        58724112     12.01%    100.00% # Number of insts commited each cycle (Count)
system.cpu.commit.numCommittedDist::overflows            0      0.00%    100.00% # Number of insts commited each cycle (Count)
system.cpu.commit.numCommittedDist::min_value            0                       # Number of insts commited each cycle (Count)
system.cpu.commit.numCommittedDist::max_value            8                       # Number of insts commited each cycle (Count)
system.cpu.commit.numCommittedDist::total    488847924                       # Number of insts commited each cycle (Count)
system.cpu.commit.instsCommitted            500000000                       # Number of instructions committed (Count)
system.cpu.commit.opsCommitted              881085600                       # Number of ops (including micro ops) committed (Count)
system.cpu.commit.memRefs                   184808235                       # Number of memory references committed (Count)
system.cpu.commit.loads                     158568252                       # Number of loads committed (Count)
system.cpu.commit.amos                              0                       # Number of atomic instructions committed (Count)
system.cpu.commit.membars                         380                       # Number of memory barriers committed (Count)
system.cpu.commit.branches                   92319679                       # Number of branches committed (Count)
system.cpu.commit.vectorInstructions                0                       # Number of committed Vector instructions. (Count)
system.cpu.commit.floating                    1326726                       # Number of committed floating point instructions. (Count)
system.cpu.commit.integer                   879013398                       # Number of committed integer instructions. (Count)
system.cpu.commit.functionCalls               1309548                       # Number of function calls committed. (Count)
system.cpu.commit.committedInstType_0::No_OpClass      1044465      0.12%      0.12% # Class of committed instruction (Count)
system.cpu.commit.committedInstType_0::IntAlu    686115091     77.87%     77.99% # Class of committed instruction (Count)
system.cpu.commit.committedInstType_0::IntMult      8200232      0.93%     78.92% # Class of committed instruction (Count)
system.cpu.commit.committedInstType_0::IntDiv        30751      0.00%     78.92% # Class of committed instruction (Count)
system.cpu.commit.committedInstType_0::FloatAdd        18778      0.00%     78.93% # Class of committed instruction (Count)
system.cpu.commit.committedInstType_0::FloatCmp            0      0.00%     78.93% # Class of committed instruction (Count)
system.cpu.commit.committedInstType_0::FloatCvt          400      0.00%     78.93% # Class of committed instruction (Count)
system.cpu.commit.committedInstType_0::FloatMult            0      0.00%     78.93% # Class of committed instruction (Count)
system.cpu.commit.committedInstType_0::FloatMultAcc            0      0.00%     78.93% # Class of committed instruction (Count)
system.cpu.commit.committedInstType_0::FloatDiv            0      0.00%     78.93% # Class of committed instruction (Count)
system.cpu.commit.committedInstType_0::FloatMisc            0      0.00%     78.93% # Class of committed instruction (Count)
system.cpu.commit.committedInstType_0::FloatSqrt            0      0.00%     78.93% # Class of committed instruction (Count)
system.cpu.commit.committedInstType_0::SimdAdd            0      0.00%     78.93% # Class of committed instruction (Count)
system.cpu.commit.committedInstType_0::SimdAddAcc            0      0.00%     78.93% # Class of committed instruction (Count)
system.cpu.commit.committedInstType_0::SimdAlu           38      0.00%     78.93% # Class of committed instruction (Count)
system.cpu.commit.committedInstType_0::SimdCmp            0      0.00%     78.93% # Class of committed instruction (Count)
system.cpu.commit.committedInstType_0::SimdCvt           44      0.00%     78.93% # Class of committed instruction (Count)
system.cpu.commit.committedInstType_0::SimdMisc       314436      0.04%     78.96% # Class of committed instruction (Count)
system.cpu.commit.committedInstType_0::SimdMult            0      0.00%     78.96% # Class of committed instruction (Count)
system.cpu.commit.committedInstType_0::SimdMultAcc            0      0.00%     78.96% # Class of committed instruction (Count)
system.cpu.commit.committedInstType_0::SimdShift            0      0.00%     78.96% # Class of committed instruction (Count)
system.cpu.commit.committedInstType_0::SimdShiftAcc            0      0.00%     78.96% # Class of committed instruction (Count)
system.cpu.commit.committedInstType_0::SimdDiv            0      0.00%     78.96% # Class of committed instruction (Count)
system.cpu.commit.committedInstType_0::SimdSqrt            0      0.00%     78.96% # Class of committed instruction (Count)
system.cpu.commit.committedInstType_0::SimdFloatAdd       157435      0.02%     78.98% # Class of committed instruction (Count)
system.cpu.commit.committedInstType_0::SimdFloatAlu            0      0.00%     78.98% # Class of committed instruction (Count)
system.cpu.commit.committedInstType_0::SimdFloatCmp            1      0.00%     78.98% # Class of committed instruction (Count)
system.cpu.commit.committedInstType_0::SimdFloatCvt       354351      0.04%     79.02% # Class of committed instruction (Count)
system.cpu.commit.committedInstType_0::SimdFloatDiv        12303      0.00%     79.02% # Class of committed instruction (Count)
system.cpu.commit.committedInstType_0::SimdFloatMisc            0      0.00%     79.02% # Class of committed instruction (Count)
system.cpu.commit.committedInstType_0::SimdFloatMult        29040      0.00%     79.02% # Class of committed instruction (Count)
system.cpu.commit.committedInstType_0::SimdFloatMultAcc            0      0.00%     79.02% # Class of committed instruction (Count)
system.cpu.commit.committedInstType_0::SimdFloatSqrt            0      0.00%     79.02% # Class of committed instruction (Count)
system.cpu.commit.committedInstType_0::SimdReduceAdd            0      0.00%     79.02% # Class of committed instruction (Count)
system.cpu.commit.committedInstType_0::SimdReduceAlu            0      0.00%     79.02% # Class of committed instruction (Count)
system.cpu.commit.committedInstType_0::SimdReduceCmp            0      0.00%     79.02% # Class of committed instruction (Count)
system.cpu.commit.committedInstType_0::SimdFloatReduceAdd            0      0.00%     79.02% # Class of committed instruction (Count)
system.cpu.commit.committedInstType_0::SimdFloatReduceCmp            0      0.00%     79.02% # Class of committed instruction (Count)
system.cpu.commit.committedInstType_0::SimdAes            0      0.00%     79.02% # Class of committed instruction (Count)
system.cpu.commit.committedInstType_0::SimdAesMix            0      0.00%     79.02% # Class of committed instruction (Count)
system.cpu.commit.committedInstType_0::SimdSha1Hash            0      0.00%     79.02% # Class of committed instruction (Count)
system.cpu.commit.committedInstType_0::SimdSha1Hash2            0      0.00%     79.02% # Class of committed instruction (Count)
system.cpu.commit.committedInstType_0::SimdSha256Hash            0      0.00%     79.02% # Class of committed instruction (Count)
system.cpu.commit.committedInstType_0::SimdSha256Hash2            0      0.00%     79.02% # Class of committed instruction (Count)
system.cpu.commit.committedInstType_0::SimdShaSigma2            0      0.00%     79.02% # Class of committed instruction (Count)
system.cpu.commit.committedInstType_0::SimdShaSigma3            0      0.00%     79.02% # Class of committed instruction (Count)
system.cpu.commit.committedInstType_0::SimdPredAlu            0      0.00%     79.02% # Class of committed instruction (Count)
system.cpu.commit.committedInstType_0::MemRead    158403740     17.98%     97.00% # Class of committed instruction (Count)
system.cpu.commit.committedInstType_0::MemWrite     25976973      2.95%     99.95% # Class of committed instruction (Count)
system.cpu.commit.committedInstType_0::FloatMemRead       164512      0.02%     99.97% # Class of committed instruction (Count)
system.cpu.commit.committedInstType_0::FloatMemWrite       263010      0.03%    100.00% # Class of committed instruction (Count)
system.cpu.commit.committedInstType_0::IprAccess            0      0.00%    100.00% # Class of committed instruction (Count)
system.cpu.commit.committedInstType_0::InstPrefetch            0      0.00%    100.00% # Class of committed instruction (Count)
system.cpu.commit.committedInstType_0::total    881085600                       # Class of committed instruction (Count)
system.cpu.commit.commitEligibleSamples      58724112                       # number cycles where commit BW limit reached (Cycle)
system.cpu.dcache.demandHits::cpu.data      277694913                       # number of demand (read+write) hits (Count)
system.cpu.dcache.demandHits::total         277694913                       # number of demand (read+write) hits (Count)
system.cpu.dcache.overallHits::cpu.data     277696049                       # number of overall hits (Count)
system.cpu.dcache.overallHits::total        277696049                       # number of overall hits (Count)
system.cpu.dcache.demandMisses::cpu.data      4422469                       # number of demand (read+write) misses (Count)
system.cpu.dcache.demandMisses::total         4422469                       # number of demand (read+write) misses (Count)
system.cpu.dcache.overallMisses::cpu.data      4451810                       # number of overall misses (Count)
system.cpu.dcache.overallMisses::total        4451810                       # number of overall misses (Count)
system.cpu.dcache.demandMissLatency::cpu.data  73951785337                       # number of demand (read+write) miss ticks (Tick)
system.cpu.dcache.demandMissLatency::total  73951785337                       # number of demand (read+write) miss ticks (Tick)
system.cpu.dcache.overallMissLatency::cpu.data  73951785337                       # number of overall miss ticks (Tick)
system.cpu.dcache.overallMissLatency::total  73951785337                       # number of overall miss ticks (Tick)
system.cpu.dcache.demandAccesses::cpu.data    282117382                       # number of demand (read+write) accesses (Count)
system.cpu.dcache.demandAccesses::total     282117382                       # number of demand (read+write) accesses (Count)
system.cpu.dcache.overallAccesses::cpu.data    282147859                       # number of overall (read+write) accesses (Count)
system.cpu.dcache.overallAccesses::total    282147859                       # number of overall (read+write) accesses (Count)
system.cpu.dcache.demandMissRate::cpu.data     0.015676                       # miss rate for demand accesses (Ratio)
system.cpu.dcache.demandMissRate::total      0.015676                       # miss rate for demand accesses (Ratio)
system.cpu.dcache.overallMissRate::cpu.data     0.015778                       # miss rate for overall accesses (Ratio)
system.cpu.dcache.overallMissRate::total     0.015778                       # miss rate for overall accesses (Ratio)
system.cpu.dcache.demandAvgMissLatency::cpu.data 16721.832383                       # average overall miss latency in ticks ((Tick/Count))
system.cpu.dcache.demandAvgMissLatency::total 16721.832383                       # average overall miss latency in ticks ((Tick/Count))
system.cpu.dcache.overallAvgMissLatency::cpu.data 16611.622090                       # average overall miss latency ((Tick/Count))
system.cpu.dcache.overallAvgMissLatency::total 16611.622090                       # average overall miss latency ((Tick/Count))
system.cpu.dcache.blockedCycles::no_mshrs      1134759                       # number of cycles access was blocked (Cycle)
system.cpu.dcache.blockedCycles::no_targets          224                       # number of cycles access was blocked (Cycle)
system.cpu.dcache.blockedCauses::no_mshrs        59040                       # number of times access was blocked (Count)
system.cpu.dcache.blockedCauses::no_targets           10                       # number of times access was blocked (Count)
system.cpu.dcache.avgBlocked::no_mshrs      19.220173                       # average number of cycles each access was blocked ((Cycle/Count))
system.cpu.dcache.avgBlocked::no_targets    22.400000                       # average number of cycles each access was blocked ((Cycle/Count))
system.cpu.dcache.writebacks::writebacks      1596360                       # number of writebacks (Count)
system.cpu.dcache.writebacks::total           1596360                       # number of writebacks (Count)
system.cpu.dcache.demandMshrHits::cpu.data      2262114                       # number of demand (read+write) MSHR hits (Count)
system.cpu.dcache.demandMshrHits::total       2262114                       # number of demand (read+write) MSHR hits (Count)
system.cpu.dcache.overallMshrHits::cpu.data      2262114                       # number of overall MSHR hits (Count)
system.cpu.dcache.overallMshrHits::total      2262114                       # number of overall MSHR hits (Count)
system.cpu.dcache.demandMshrMisses::cpu.data      2160355                       # number of demand (read+write) MSHR misses (Count)
system.cpu.dcache.demandMshrMisses::total      2160355                       # number of demand (read+write) MSHR misses (Count)
system.cpu.dcache.overallMshrMisses::cpu.data      2189664                       # number of overall MSHR misses (Count)
system.cpu.dcache.overallMshrMisses::total      2189664                       # number of overall MSHR misses (Count)
system.cpu.dcache.demandMshrMissLatency::cpu.data  39882309345                       # number of demand (read+write) MSHR miss ticks (Tick)
system.cpu.dcache.demandMshrMissLatency::total  39882309345                       # number of demand (read+write) MSHR miss ticks (Tick)
system.cpu.dcache.overallMshrMissLatency::cpu.data  41852627345                       # number of overall MSHR miss ticks (Tick)
system.cpu.dcache.overallMshrMissLatency::total  41852627345                       # number of overall MSHR miss ticks (Tick)
system.cpu.dcache.demandMshrMissRate::cpu.data     0.007658                       # mshr miss ratio for demand accesses (Ratio)
system.cpu.dcache.demandMshrMissRate::total     0.007658                       # mshr miss ratio for demand accesses (Ratio)
system.cpu.dcache.overallMshrMissRate::cpu.data     0.007761                       # mshr miss ratio for overall accesses (Ratio)
system.cpu.dcache.overallMshrMissRate::total     0.007761                       # mshr miss ratio for overall accesses (Ratio)
system.cpu.dcache.demandAvgMshrMissLatency::cpu.data 18460.998005                       # average overall mshr miss latency ((Tick/Count))
system.cpu.dcache.demandAvgMshrMissLatency::total 18460.998005                       # average overall mshr miss latency ((Tick/Count))
system.cpu.dcache.overallAvgMshrMissLatency::cpu.data 19113.721258                       # average overall mshr miss latency ((Tick/Count))
system.cpu.dcache.overallAvgMshrMissLatency::total 19113.721258                       # average overall mshr miss latency ((Tick/Count))
system.cpu.dcache.replacements                2188645                       # number of replacements (Count)
system.cpu.dcache.LockedRMWReadReq.hits::cpu.data          183                       # number of LockedRMWReadReq hits (Count)
system.cpu.dcache.LockedRMWReadReq.hits::total          183                       # number of LockedRMWReadReq hits (Count)
system.cpu.dcache.LockedRMWReadReq.misses::cpu.data            7                       # number of LockedRMWReadReq misses (Count)
system.cpu.dcache.LockedRMWReadReq.misses::total            7                       # number of LockedRMWReadReq misses (Count)
system.cpu.dcache.LockedRMWReadReq.missLatency::cpu.data        91000                       # number of LockedRMWReadReq miss ticks (Tick)
system.cpu.dcache.LockedRMWReadReq.missLatency::total        91000                       # number of LockedRMWReadReq miss ticks (Tick)
system.cpu.dcache.LockedRMWReadReq.accesses::cpu.data          190                       # number of LockedRMWReadReq accesses(hits+misses) (Count)
system.cpu.dcache.LockedRMWReadReq.accesses::total          190                       # number of LockedRMWReadReq accesses(hits+misses) (Count)
system.cpu.dcache.LockedRMWReadReq.missRate::cpu.data     0.036842                       # miss rate for LockedRMWReadReq accesses (Ratio)
system.cpu.dcache.LockedRMWReadReq.missRate::total     0.036842                       # miss rate for LockedRMWReadReq accesses (Ratio)
system.cpu.dcache.LockedRMWReadReq.avgMissLatency::cpu.data        13000                       # average LockedRMWReadReq miss latency ((Tick/Count))
system.cpu.dcache.LockedRMWReadReq.avgMissLatency::total        13000                       # average LockedRMWReadReq miss latency ((Tick/Count))
system.cpu.dcache.LockedRMWReadReq.mshrMisses::cpu.data            7                       # number of LockedRMWReadReq MSHR misses (Count)
system.cpu.dcache.LockedRMWReadReq.mshrMisses::total            7                       # number of LockedRMWReadReq MSHR misses (Count)
system.cpu.dcache.LockedRMWReadReq.mshrMissLatency::cpu.data       741500                       # number of LockedRMWReadReq MSHR miss ticks (Tick)
system.cpu.dcache.LockedRMWReadReq.mshrMissLatency::total       741500                       # number of LockedRMWReadReq MSHR miss ticks (Tick)
system.cpu.dcache.LockedRMWReadReq.mshrMissRate::cpu.data     0.036842                       # mshr miss rate for LockedRMWReadReq accesses (Ratio)
system.cpu.dcache.LockedRMWReadReq.mshrMissRate::total     0.036842                       # mshr miss rate for LockedRMWReadReq accesses (Ratio)
system.cpu.dcache.LockedRMWReadReq.avgMshrMissLatency::cpu.data 105928.571429                       # average LockedRMWReadReq mshr miss latency ((Tick/Count))
system.cpu.dcache.LockedRMWReadReq.avgMshrMissLatency::total 105928.571429                       # average LockedRMWReadReq mshr miss latency ((Tick/Count))
system.cpu.dcache.LockedRMWWriteReq.hits::cpu.data          190                       # number of LockedRMWWriteReq hits (Count)
system.cpu.dcache.LockedRMWWriteReq.hits::total          190                       # number of LockedRMWWriteReq hits (Count)
system.cpu.dcache.LockedRMWWriteReq.accesses::cpu.data          190                       # number of LockedRMWWriteReq accesses(hits+misses) (Count)
system.cpu.dcache.LockedRMWWriteReq.accesses::total          190                       # number of LockedRMWWriteReq accesses(hits+misses) (Count)
system.cpu.dcache.ReadReq.hits::cpu.data    251649679                       # number of ReadReq hits (Count)
system.cpu.dcache.ReadReq.hits::total       251649679                       # number of ReadReq hits (Count)
system.cpu.dcache.ReadReq.misses::cpu.data      4227902                       # number of ReadReq misses (Count)
system.cpu.dcache.ReadReq.misses::total       4227902                       # number of ReadReq misses (Count)
system.cpu.dcache.ReadReq.missLatency::cpu.data  64875903500                       # number of ReadReq miss ticks (Tick)
system.cpu.dcache.ReadReq.missLatency::total  64875903500                       # number of ReadReq miss ticks (Tick)
system.cpu.dcache.ReadReq.accesses::cpu.data    255877581                       # number of ReadReq accesses(hits+misses) (Count)
system.cpu.dcache.ReadReq.accesses::total    255877581                       # number of ReadReq accesses(hits+misses) (Count)
system.cpu.dcache.ReadReq.missRate::cpu.data     0.016523                       # miss rate for ReadReq accesses (Ratio)
system.cpu.dcache.ReadReq.missRate::total     0.016523                       # miss rate for ReadReq accesses (Ratio)
system.cpu.dcache.ReadReq.avgMissLatency::cpu.data 15344.703709                       # average ReadReq miss latency ((Tick/Count))
system.cpu.dcache.ReadReq.avgMissLatency::total 15344.703709                       # average ReadReq miss latency ((Tick/Count))
system.cpu.dcache.ReadReq.mshrHits::cpu.data      2253463                       # number of ReadReq MSHR hits (Count)
system.cpu.dcache.ReadReq.mshrHits::total      2253463                       # number of ReadReq MSHR hits (Count)
system.cpu.dcache.ReadReq.mshrMisses::cpu.data      1974439                       # number of ReadReq MSHR misses (Count)
system.cpu.dcache.ReadReq.mshrMisses::total      1974439                       # number of ReadReq MSHR misses (Count)
system.cpu.dcache.ReadReq.mshrMissLatency::cpu.data  31172777500                       # number of ReadReq MSHR miss ticks (Tick)
system.cpu.dcache.ReadReq.mshrMissLatency::total  31172777500                       # number of ReadReq MSHR miss ticks (Tick)
system.cpu.dcache.ReadReq.mshrMissRate::cpu.data     0.007716                       # mshr miss rate for ReadReq accesses (Ratio)
system.cpu.dcache.ReadReq.mshrMissRate::total     0.007716                       # mshr miss rate for ReadReq accesses (Ratio)
system.cpu.dcache.ReadReq.avgMshrMissLatency::cpu.data 15788.169450                       # average ReadReq mshr miss latency ((Tick/Count))
system.cpu.dcache.ReadReq.avgMshrMissLatency::total 15788.169450                       # average ReadReq mshr miss latency ((Tick/Count))
system.cpu.dcache.SoftPFReq.hits::cpu.data         1136                       # number of SoftPFReq hits (Count)
system.cpu.dcache.SoftPFReq.hits::total          1136                       # number of SoftPFReq hits (Count)
system.cpu.dcache.SoftPFReq.misses::cpu.data        29341                       # number of SoftPFReq misses (Count)
system.cpu.dcache.SoftPFReq.misses::total        29341                       # number of SoftPFReq misses (Count)
system.cpu.dcache.SoftPFReq.accesses::cpu.data        30477                       # number of SoftPFReq accesses(hits+misses) (Count)
system.cpu.dcache.SoftPFReq.accesses::total        30477                       # number of SoftPFReq accesses(hits+misses) (Count)
system.cpu.dcache.SoftPFReq.missRate::cpu.data     0.962726                       # miss rate for SoftPFReq accesses (Ratio)
system.cpu.dcache.SoftPFReq.missRate::total     0.962726                       # miss rate for SoftPFReq accesses (Ratio)
system.cpu.dcache.SoftPFReq.mshrMisses::cpu.data        29309                       # number of SoftPFReq MSHR misses (Count)
system.cpu.dcache.SoftPFReq.mshrMisses::total        29309                       # number of SoftPFReq MSHR misses (Count)
system.cpu.dcache.SoftPFReq.mshrMissLatency::cpu.data   1970318000                       # number of SoftPFReq MSHR miss ticks (Tick)
system.cpu.dcache.SoftPFReq.mshrMissLatency::total   1970318000                       # number of SoftPFReq MSHR miss ticks (Tick)
system.cpu.dcache.SoftPFReq.mshrMissRate::cpu.data     0.961676                       # mshr miss rate for SoftPFReq accesses (Ratio)
system.cpu.dcache.SoftPFReq.mshrMissRate::total     0.961676                       # mshr miss rate for SoftPFReq accesses (Ratio)
system.cpu.dcache.SoftPFReq.avgMshrMissLatency::cpu.data 67225.698591                       # average SoftPFReq mshr miss latency ((Tick/Count))
system.cpu.dcache.SoftPFReq.avgMshrMissLatency::total 67225.698591                       # average SoftPFReq mshr miss latency ((Tick/Count))
system.cpu.dcache.WriteReq.hits::cpu.data     26045234                       # number of WriteReq hits (Count)
system.cpu.dcache.WriteReq.hits::total       26045234                       # number of WriteReq hits (Count)
system.cpu.dcache.WriteReq.misses::cpu.data       194567                       # number of WriteReq misses (Count)
system.cpu.dcache.WriteReq.misses::total       194567                       # number of WriteReq misses (Count)
system.cpu.dcache.WriteReq.missLatency::cpu.data   9075881837                       # number of WriteReq miss ticks (Tick)
system.cpu.dcache.WriteReq.missLatency::total   9075881837                       # number of WriteReq miss ticks (Tick)
system.cpu.dcache.WriteReq.accesses::cpu.data     26239801                       # number of WriteReq accesses(hits+misses) (Count)
system.cpu.dcache.WriteReq.accesses::total     26239801                       # number of WriteReq accesses(hits+misses) (Count)
system.cpu.dcache.WriteReq.missRate::cpu.data     0.007415                       # miss rate for WriteReq accesses (Ratio)
system.cpu.dcache.WriteReq.missRate::total     0.007415                       # miss rate for WriteReq accesses (Ratio)
system.cpu.dcache.WriteReq.avgMissLatency::cpu.data 46646.563071                       # average WriteReq miss latency ((Tick/Count))
system.cpu.dcache.WriteReq.avgMissLatency::total 46646.563071                       # average WriteReq miss latency ((Tick/Count))
system.cpu.dcache.WriteReq.mshrHits::cpu.data         8651                       # number of WriteReq MSHR hits (Count)
system.cpu.dcache.WriteReq.mshrHits::total         8651                       # number of WriteReq MSHR hits (Count)
system.cpu.dcache.WriteReq.mshrMisses::cpu.data       185916                       # number of WriteReq MSHR misses (Count)
system.cpu.dcache.WriteReq.mshrMisses::total       185916                       # number of WriteReq MSHR misses (Count)
system.cpu.dcache.WriteReq.mshrMissLatency::cpu.data   8709531845                       # number of WriteReq MSHR miss ticks (Tick)
system.cpu.dcache.WriteReq.mshrMissLatency::total   8709531845                       # number of WriteReq MSHR miss ticks (Tick)
system.cpu.dcache.WriteReq.mshrMissRate::cpu.data     0.007085                       # mshr miss rate for WriteReq accesses (Ratio)
system.cpu.dcache.WriteReq.mshrMissRate::total     0.007085                       # mshr miss rate for WriteReq accesses (Ratio)
system.cpu.dcache.WriteReq.avgMshrMissLatency::cpu.data 46846.596554                       # average WriteReq mshr miss latency ((Tick/Count))
system.cpu.dcache.WriteReq.avgMshrMissLatency::total 46846.596554                       # average WriteReq mshr miss latency ((Tick/Count))
system.cpu.dcache.power_state.pwrStateResidencyTicks::UNDEFINED 297854450500                       # Cumulative time (in ticks) in various power states (Tick)
system.cpu.dcache.tags.tagsInUse          1023.768412                       # Average ticks per tags in use ((Tick/Count))
system.cpu.dcache.tags.totalRefs            279886093                       # Total number of references to valid blocks. (Count)
system.cpu.dcache.tags.sampledRefs            2189669                       # Sample count of references to valid blocks. (Count)
system.cpu.dcache.tags.avgRefs             127.821188                       # Average number of references to valid blocks. ((Count/Count))
system.cpu.dcache.tags.warmupTick              179500                       # The tick when the warmup percentage was hit. (Tick)
system.cpu.dcache.tags.occupancies::cpu.data  1023.768412                       # Average occupied blocks per tick, per requestor ((Count/Tick))
system.cpu.dcache.tags.avgOccs::cpu.data     0.999774                       # Average percentage of cache occupancy ((Ratio/Tick))
system.cpu.dcache.tags.avgOccs::total        0.999774                       # Average percentage of cache occupancy ((Ratio/Tick))
system.cpu.dcache.tags.occupanciesTaskId::1024         1024                       # Occupied blocks per task id (Count)
system.cpu.dcache.tags.ageTaskId_1024::0           41                       # Occupied blocks per task id, per block age (Count)
system.cpu.dcache.tags.ageTaskId_1024::1          342                       # Occupied blocks per task id, per block age (Count)
system.cpu.dcache.tags.ageTaskId_1024::2          635                       # Occupied blocks per task id, per block age (Count)
system.cpu.dcache.tags.ageTaskId_1024::3            3                       # Occupied blocks per task id, per block age (Count)
system.cpu.dcache.tags.ageTaskId_1024::4            3                       # Occupied blocks per task id, per block age (Count)
system.cpu.dcache.tags.ratioOccsTaskId::1024            1                       # Ratio of occupied blocks and all blocks, per task id (Ratio)
system.cpu.dcache.tags.tagAccesses          566486147                       # Number of tag accesses (Count)
system.cpu.dcache.tags.dataAccesses         566486147                       # Number of data accesses (Count)
system.cpu.dcache.tags.power_state.pwrStateResidencyTicks::UNDEFINED 297854450500                       # Cumulative time (in ticks) in various power states (Tick)
system.cpu.decode.idleCycles                172952252                       # Number of cycles decode is idle (Cycle)
system.cpu.decode.blockedCycles             113753050                       # Number of cycles decode is blocked (Cycle)
system.cpu.decode.runCycles                 270416839                       # Number of cycles decode is running (Cycle)
system.cpu.decode.unblockCycles              18103762                       # Number of cycles decode is unblocking (Cycle)
system.cpu.decode.squashCycles               20343978                       # Number of cycles decode is squashing (Cycle)
system.cpu.decode.branchResolved            112431506                       # Number of times decode resolved a branch (Count)
system.cpu.decode.branchMispred                  1575                       # Number of times decode detected a branch misprediction (Count)
system.cpu.decode.decodedInsts             1840959753                       # Number of instructions handled by decode (Count)
system.cpu.decode.squashedInsts                  7161                       # Number of squashed instructions handled by decode (Count)
system.cpu.dtb_walker_cache.blockedCycles::no_mshrs            0                       # number of cycles access was blocked (Cycle)
system.cpu.dtb_walker_cache.blockedCycles::no_targets            0                       # number of cycles access was blocked (Cycle)
system.cpu.dtb_walker_cache.blockedCauses::no_mshrs            0                       # number of times access was blocked (Count)
system.cpu.dtb_walker_cache.blockedCauses::no_targets            0                       # number of times access was blocked (Count)
system.cpu.dtb_walker_cache.avgBlocked::no_mshrs          nan                       # average number of cycles each access was blocked ((Cycle/Count))
system.cpu.dtb_walker_cache.avgBlocked::no_targets          nan                       # average number of cycles each access was blocked ((Cycle/Count))
system.cpu.dtb_walker_cache.replacements            0                       # number of replacements (Count)
system.cpu.dtb_walker_cache.power_state.pwrStateResidencyTicks::UNDEFINED 297854450500                       # Cumulative time (in ticks) in various power states (Tick)
system.cpu.dtb_walker_cache.tags.tagsInUse            0                       # Average ticks per tags in use ((Tick/Count))
system.cpu.dtb_walker_cache.tags.totalRefs            0                       # Total number of references to valid blocks. (Count)
system.cpu.dtb_walker_cache.tags.sampledRefs            0                       # Sample count of references to valid blocks. (Count)
system.cpu.dtb_walker_cache.tags.avgRefs          nan                       # Average number of references to valid blocks. ((Count/Count))
system.cpu.dtb_walker_cache.tags.warmupTick            0                       # The tick when the warmup percentage was hit. (Tick)
system.cpu.dtb_walker_cache.tags.tagAccesses            0                       # Number of tag accesses (Count)
system.cpu.dtb_walker_cache.tags.dataAccesses            0                       # Number of data accesses (Count)
system.cpu.dtb_walker_cache.tags.power_state.pwrStateResidencyTicks::UNDEFINED 297854450500                       # Cumulative time (in ticks) in various power states (Tick)
system.cpu.fetch.icacheStallCycles          209497976                       # Number of cycles fetch is stalled on an Icache miss (Cycle)
system.cpu.fetch.insts                     1082844871                       # Number of instructions fetch has processed (Count)
system.cpu.fetch.branches                   198774831                       # Number of branches that fetch encountered (Count)
system.cpu.fetch.predictedBranches          121153707                       # Number of branches that fetch has predicted taken (Count)
system.cpu.fetch.cycles                     365718574                       # Number of cycles fetch has run and was not squashing or blocked (Cycle)
system.cpu.fetch.squashCycles                40690952                       # Number of cycles fetch has spent squashing (Cycle)
system.cpu.fetch.miscStallCycles                  825                       # Number of cycles fetch has spent waiting on interrupts, or bad addresses, or out of MSHRs (Cycle)
system.cpu.fetch.pendingTrapStallCycles          7025                       # Number of stall cycles due to pending traps (Cycle)
system.cpu.fetch.icacheWaitRetryStallCycles            5                       # Number of stall cycles due to full MSHR (Cycle)
system.cpu.fetch.cacheLines                 197963589                       # Number of cache lines fetched (Count)
system.cpu.fetch.icacheSquashes               7366017                       # Number of outstanding Icache misses that were squashed (Count)
system.cpu.fetch.nisnDist::samples          595569881                       # Number of instructions fetched each cycle (Total) (Count)
system.cpu.fetch.nisnDist::mean              3.218666                       # Number of instructions fetched each cycle (Total) (Count)
system.cpu.fetch.nisnDist::stdev             3.519523                       # Number of instructions fetched each cycle (Total) (Count)
system.cpu.fetch.nisnDist::underflows               0      0.00%      0.00% # Number of instructions fetched each cycle (Total) (Count)
system.cpu.fetch.nisnDist::0                274437112     46.08%     46.08% # Number of instructions fetched each cycle (Total) (Count)
system.cpu.fetch.nisnDist::1                 39877831      6.70%     52.78% # Number of instructions fetched each cycle (Total) (Count)
system.cpu.fetch.nisnDist::2                  8149190      1.37%     54.14% # Number of instructions fetched each cycle (Total) (Count)
system.cpu.fetch.nisnDist::3                 20842285      3.50%     57.64% # Number of instructions fetched each cycle (Total) (Count)
system.cpu.fetch.nisnDist::4                 26302672      4.42%     62.06% # Number of instructions fetched each cycle (Total) (Count)
system.cpu.fetch.nisnDist::5                 13248802      2.22%     64.28% # Number of instructions fetched each cycle (Total) (Count)
system.cpu.fetch.nisnDist::6                 22675722      3.81%     68.09% # Number of instructions fetched each cycle (Total) (Count)
system.cpu.fetch.nisnDist::7                 29561618      4.96%     73.06% # Number of instructions fetched each cycle (Total) (Count)
system.cpu.fetch.nisnDist::8                160474649     26.94%    100.00% # Number of instructions fetched each cycle (Total) (Count)
system.cpu.fetch.nisnDist::overflows                0      0.00%    100.00% # Number of instructions fetched each cycle (Total) (Count)
system.cpu.fetch.nisnDist::min_value                0                       # Number of instructions fetched each cycle (Total) (Count)
system.cpu.fetch.nisnDist::max_value                8                       # Number of instructions fetched each cycle (Total) (Count)
system.cpu.fetch.nisnDist::total            595569881                       # Number of instructions fetched each cycle (Total) (Count)
system.cpu.fetch.branchRate                  0.333678                       # Number of branch fetches per cycle (Ratio)
system.cpu.fetch.rate                        1.817742                       # Number of inst fetches per cycle ((Count/Cycle))
system.cpu.icache.demandHits::cpu.inst      197960593                       # number of demand (read+write) hits (Count)
system.cpu.icache.demandHits::total         197960593                       # number of demand (read+write) hits (Count)
system.cpu.icache.overallHits::cpu.inst     197960593                       # number of overall hits (Count)
system.cpu.icache.overallHits::total        197960593                       # number of overall hits (Count)
system.cpu.icache.demandMisses::cpu.inst         2996                       # number of demand (read+write) misses (Count)
system.cpu.icache.demandMisses::total            2996                       # number of demand (read+write) misses (Count)
system.cpu.icache.overallMisses::cpu.inst         2996                       # number of overall misses (Count)
system.cpu.icache.overallMisses::total           2996                       # number of overall misses (Count)
system.cpu.icache.demandMissLatency::cpu.inst    199393000                       # number of demand (read+write) miss ticks (Tick)
system.cpu.icache.demandMissLatency::total    199393000                       # number of demand (read+write) miss ticks (Tick)
system.cpu.icache.overallMissLatency::cpu.inst    199393000                       # number of overall miss ticks (Tick)
system.cpu.icache.overallMissLatency::total    199393000                       # number of overall miss ticks (Tick)
system.cpu.icache.demandAccesses::cpu.inst    197963589                       # number of demand (read+write) accesses (Count)
system.cpu.icache.demandAccesses::total     197963589                       # number of demand (read+write) accesses (Count)
system.cpu.icache.overallAccesses::cpu.inst    197963589                       # number of overall (read+write) accesses (Count)
system.cpu.icache.overallAccesses::total    197963589                       # number of overall (read+write) accesses (Count)
system.cpu.icache.demandMissRate::cpu.inst     0.000015                       # miss rate for demand accesses (Ratio)
system.cpu.icache.demandMissRate::total      0.000015                       # miss rate for demand accesses (Ratio)
system.cpu.icache.overallMissRate::cpu.inst     0.000015                       # miss rate for overall accesses (Ratio)
system.cpu.icache.overallMissRate::total     0.000015                       # miss rate for overall accesses (Ratio)
system.cpu.icache.demandAvgMissLatency::cpu.inst 66553.070761                       # average overall miss latency in ticks ((Tick/Count))
system.cpu.icache.demandAvgMissLatency::total 66553.070761                       # average overall miss latency in ticks ((Tick/Count))
system.cpu.icache.overallAvgMissLatency::cpu.inst 66553.070761                       # average overall miss latency ((Tick/Count))
system.cpu.icache.overallAvgMissLatency::total 66553.070761                       # average overall miss latency ((Tick/Count))
system.cpu.icache.blockedCycles::no_mshrs          117                       # number of cycles access was blocked (Cycle)
system.cpu.icache.blockedCycles::no_targets            0                       # number of cycles access was blocked (Cycle)
system.cpu.icache.blockedCauses::no_mshrs            3                       # number of times access was blocked (Count)
system.cpu.icache.blockedCauses::no_targets            0                       # number of times access was blocked (Count)
system.cpu.icache.avgBlocked::no_mshrs             39                       # average number of cycles each access was blocked ((Cycle/Count))
system.cpu.icache.avgBlocked::no_targets          nan                       # average number of cycles each access was blocked ((Cycle/Count))
system.cpu.icache.writebacks::writebacks         1796                       # number of writebacks (Count)
system.cpu.icache.writebacks::total              1796                       # number of writebacks (Count)
system.cpu.icache.demandMshrHits::cpu.inst          686                       # number of demand (read+write) MSHR hits (Count)
system.cpu.icache.demandMshrHits::total           686                       # number of demand (read+write) MSHR hits (Count)
system.cpu.icache.overallMshrHits::cpu.inst          686                       # number of overall MSHR hits (Count)
system.cpu.icache.overallMshrHits::total          686                       # number of overall MSHR hits (Count)
system.cpu.icache.demandMshrMisses::cpu.inst         2310                       # number of demand (read+write) MSHR misses (Count)
system.cpu.icache.demandMshrMisses::total         2310                       # number of demand (read+write) MSHR misses (Count)
system.cpu.icache.overallMshrMisses::cpu.inst         2310                       # number of overall MSHR misses (Count)
system.cpu.icache.overallMshrMisses::total         2310                       # number of overall MSHR misses (Count)
system.cpu.icache.demandMshrMissLatency::cpu.inst    155261000                       # number of demand (read+write) MSHR miss ticks (Tick)
system.cpu.icache.demandMshrMissLatency::total    155261000                       # number of demand (read+write) MSHR miss ticks (Tick)
system.cpu.icache.overallMshrMissLatency::cpu.inst    155261000                       # number of overall MSHR miss ticks (Tick)
system.cpu.icache.overallMshrMissLatency::total    155261000                       # number of overall MSHR miss ticks (Tick)
system.cpu.icache.demandMshrMissRate::cpu.inst     0.000012                       # mshr miss ratio for demand accesses (Ratio)
system.cpu.icache.demandMshrMissRate::total     0.000012                       # mshr miss ratio for demand accesses (Ratio)
system.cpu.icache.overallMshrMissRate::cpu.inst     0.000012                       # mshr miss ratio for overall accesses (Ratio)
system.cpu.icache.overallMshrMissRate::total     0.000012                       # mshr miss ratio for overall accesses (Ratio)
system.cpu.icache.demandAvgMshrMissLatency::cpu.inst 67212.554113                       # average overall mshr miss latency ((Tick/Count))
system.cpu.icache.demandAvgMshrMissLatency::total 67212.554113                       # average overall mshr miss latency ((Tick/Count))
system.cpu.icache.overallAvgMshrMissLatency::cpu.inst 67212.554113                       # average overall mshr miss latency ((Tick/Count))
system.cpu.icache.overallAvgMshrMissLatency::total 67212.554113                       # average overall mshr miss latency ((Tick/Count))
system.cpu.icache.replacements                   1796                       # number of replacements (Count)
system.cpu.icache.ReadReq.hits::cpu.inst    197960593                       # number of ReadReq hits (Count)
system.cpu.icache.ReadReq.hits::total       197960593                       # number of ReadReq hits (Count)
system.cpu.icache.ReadReq.misses::cpu.inst         2996                       # number of ReadReq misses (Count)
system.cpu.icache.ReadReq.misses::total          2996                       # number of ReadReq misses (Count)
system.cpu.icache.ReadReq.missLatency::cpu.inst    199393000                       # number of ReadReq miss ticks (Tick)
system.cpu.icache.ReadReq.missLatency::total    199393000                       # number of ReadReq miss ticks (Tick)
system.cpu.icache.ReadReq.accesses::cpu.inst    197963589                       # number of ReadReq accesses(hits+misses) (Count)
system.cpu.icache.ReadReq.accesses::total    197963589                       # number of ReadReq accesses(hits+misses) (Count)
system.cpu.icache.ReadReq.missRate::cpu.inst     0.000015                       # miss rate for ReadReq accesses (Ratio)
system.cpu.icache.ReadReq.missRate::total     0.000015                       # miss rate for ReadReq accesses (Ratio)
system.cpu.icache.ReadReq.avgMissLatency::cpu.inst 66553.070761                       # average ReadReq miss latency ((Tick/Count))
system.cpu.icache.ReadReq.avgMissLatency::total 66553.070761                       # average ReadReq miss latency ((Tick/Count))
system.cpu.icache.ReadReq.mshrHits::cpu.inst          686                       # number of ReadReq MSHR hits (Count)
system.cpu.icache.ReadReq.mshrHits::total          686                       # number of ReadReq MSHR hits (Count)
system.cpu.icache.ReadReq.mshrMisses::cpu.inst         2310                       # number of ReadReq MSHR misses (Count)
system.cpu.icache.ReadReq.mshrMisses::total         2310                       # number of ReadReq MSHR misses (Count)
system.cpu.icache.ReadReq.mshrMissLatency::cpu.inst    155261000                       # number of ReadReq MSHR miss ticks (Tick)
system.cpu.icache.ReadReq.mshrMissLatency::total    155261000                       # number of ReadReq MSHR miss ticks (Tick)
system.cpu.icache.ReadReq.mshrMissRate::cpu.inst     0.000012                       # mshr miss rate for ReadReq accesses (Ratio)
system.cpu.icache.ReadReq.mshrMissRate::total     0.000012                       # mshr miss rate for ReadReq accesses (Ratio)
system.cpu.icache.ReadReq.avgMshrMissLatency::cpu.inst 67212.554113                       # average ReadReq mshr miss latency ((Tick/Count))
system.cpu.icache.ReadReq.avgMshrMissLatency::total 67212.554113                       # average ReadReq mshr miss latency ((Tick/Count))
system.cpu.icache.power_state.pwrStateResidencyTicks::UNDEFINED 297854450500                       # Cumulative time (in ticks) in various power states (Tick)
system.cpu.icache.tags.tagsInUse           510.638336                       # Average ticks per tags in use ((Tick/Count))
system.cpu.icache.tags.totalRefs            197962903                       # Total number of references to valid blocks. (Count)
system.cpu.icache.tags.sampledRefs               2310                       # Sample count of references to valid blocks. (Count)
system.cpu.icache.tags.avgRefs           85698.226407                       # Average number of references to valid blocks. ((Count/Count))
system.cpu.icache.tags.warmupTick               87500                       # The tick when the warmup percentage was hit. (Tick)
system.cpu.icache.tags.occupancies::cpu.inst   510.638336                       # Average occupied blocks per tick, per requestor ((Count/Tick))
system.cpu.icache.tags.avgOccs::cpu.inst     0.997340                       # Average percentage of cache occupancy ((Ratio/Tick))
system.cpu.icache.tags.avgOccs::total        0.997340                       # Average percentage of cache occupancy ((Ratio/Tick))
system.cpu.icache.tags.occupanciesTaskId::1024          512                       # Occupied blocks per task id (Count)
system.cpu.icache.tags.ageTaskId_1024::4          512                       # Occupied blocks per task id, per block age (Count)
system.cpu.icache.tags.ratioOccsTaskId::1024            1                       # Ratio of occupied blocks and all blocks, per task id (Ratio)
system.cpu.icache.tags.tagAccesses          395929488                       # Number of tag accesses (Count)
system.cpu.icache.tags.dataAccesses         395929488                       # Number of data accesses (Count)
system.cpu.icache.tags.power_state.pwrStateResidencyTicks::UNDEFINED 297854450500                       # Cumulative time (in ticks) in various power states (Tick)
system.cpu.iew.idleCycles                           0                       # Number of cycles IEW is idle (Cycle)
system.cpu.iew.squashCycles                  20343978                       # Number of cycles IEW is squashing (Cycle)
system.cpu.iew.blockCycles                   89970490                       # Number of cycles IEW is blocking (Cycle)
system.cpu.iew.unblockCycles                  3163432                       # Number of cycles IEW is unblocking (Cycle)
system.cpu.iew.dispatchedInsts             1635745410                       # Number of instructions dispatched to IQ (Count)
system.cpu.iew.dispSquashedInsts                21454                       # Number of squashed instructions skipped by dispatch (Count)
system.cpu.iew.dispLoadInsts                301410606                       # Number of dispatched load instructions (Count)
system.cpu.iew.dispStoreInsts                43287510                       # Number of dispatched store instructions (Count)
system.cpu.iew.dispNonSpecInsts                  1443                       # Number of dispatched non-speculative instructions (Count)
system.cpu.iew.iqFullEvents                     69600                       # Number of times the IQ has become full, causing a stall (Count)
system.cpu.iew.lsqFullEvents                  3053516                       # Number of times the LSQ has become full, causing a stall (Count)
system.cpu.iew.memOrderViolationEvents           8030                       # Number of memory order violations (Count)
system.cpu.iew.predictedTakenIncorrect       16253224                       # Number of branches that were predicted taken incorrectly (Count)
system.cpu.iew.predictedNotTakenIncorrect      9941698                       # Number of branches that were predicted not taken incorrectly (Count)
system.cpu.iew.branchMispredicts             26194922                       # Number of branch mispredicts detected at execute (Count)
system.cpu.iew.instsToCommit               1391172552                       # Cumulative count of insts sent to commit (Count)
system.cpu.iew.writebackCount              1379951819                       # Cumulative count of insts written-back (Count)
system.cpu.iew.producerInst                1141741979                       # Number of instructions producing a value (Count)
system.cpu.iew.consumerInst                1639847996                       # Number of instructions consuming a value (Count)
system.cpu.iew.wbRate                        2.316487                       # Insts written-back per cycle ((Count/Cycle))
[...]
system.mem_ctrls.dram.perBankWrBursts::14         6924                       # Per bank write bursts (Count)
system.mem_ctrls.dram.perBankWrBursts::15         7370                       # Per bank write bursts (Count)
system.mem_ctrls.dram.totQLat              3655084000                       # Total ticks spent queuing (Tick)
system.mem_ctrls.dram.totBusLat             988130000                       # Total ticks spent in databus transfers (Tick)
system.mem_ctrls.dram.totMemAccLat         7360571500                       # Total ticks spent from burst creation until serviced by the DRAM (Tick)
system.mem_ctrls.dram.avgQLat                18494.96                       # Average queueing delay per DRAM burst ((Tick/Count))
system.mem_ctrls.dram.avgBusLat               5000.00                       # Average bus latency per DRAM burst ((Tick/Count))
system.mem_ctrls.dram.avgMemAccLat           37244.96                       # Average memory access latency per DRAM burst ((Tick/Count))
system.mem_ctrls.dram.readRowHits              135661                       # Number of row buffer hits during reads (Count)
system.mem_ctrls.dram.writeRowHits              40743                       # Number of row buffer hits during writes (Count)
system.mem_ctrls.dram.readRowHitRate            68.65                       # Row buffer hit rate for reads (Ratio)
system.mem_ctrls.dram.writeRowHitRate           31.20                       # Row buffer hit rate for writes (Ratio)
system.mem_ctrls.dram.bytesPerActivate::samples       151827                       # Bytes accessed per row activation (Byte)
system.mem_ctrls.dram.bytesPerActivate::mean   138.360002                       # Bytes accessed per row activation (Byte)
system.mem_ctrls.dram.bytesPerActivate::gmean   100.429078                       # Bytes accessed per row activation (Byte)
system.mem_ctrls.dram.bytesPerActivate::stdev   162.382491                       # Bytes accessed per row activation (Byte)
system.mem_ctrls.dram.bytesPerActivate::0-127        94182     62.03%     62.03% # Bytes accessed per row activation (Byte)
system.mem_ctrls.dram.bytesPerActivate::128-255        37321     24.58%     86.61% # Bytes accessed per row activation (Byte)
system.mem_ctrls.dram.bytesPerActivate::256-383         9760      6.43%     93.04% # Bytes accessed per row activation (Byte)
system.mem_ctrls.dram.bytesPerActivate::384-511         3911      2.58%     95.62% # Bytes accessed per row activation (Byte)
system.mem_ctrls.dram.bytesPerActivate::512-639         2064      1.36%     96.98% # Bytes accessed per row activation (Byte)
system.mem_ctrls.dram.bytesPerActivate::640-767         1224      0.81%     97.78% # Bytes accessed per row activation (Byte)
system.mem_ctrls.dram.bytesPerActivate::768-895          768      0.51%     98.29% # Bytes accessed per row activation (Byte)
system.mem_ctrls.dram.bytesPerActivate::896-1023          573      0.38%     98.67% # Bytes accessed per row activation (Byte)
system.mem_ctrls.dram.bytesPerActivate::1024-1151         2024      1.33%    100.00% # Bytes accessed per row activation (Byte)
system.mem_ctrls.dram.bytesPerActivate::total       151827                       # Bytes accessed per row activation (Byte)
system.mem_ctrls.dram.bytesRead              12648064                       # Total bytes read (Byte)
system.mem_ctrls.dram.bytesWritten            8358720                       # Total bytes written (Byte)
system.mem_ctrls.dram.avgRdBW               42.463908                       # Average DRAM read bandwidth in MiBytes/s ((Byte/Second))
system.mem_ctrls.dram.avgWrBW               28.063103                       # Average DRAM write bandwidth in MiBytes/s ((Byte/Second))
system.mem_ctrls.dram.peakBW                 12800.00                       # Theoretical peak bandwidth in MiByte/s ((Byte/Second))
system.mem_ctrls.dram.busUtil                    0.55                       # Data bus utilization in percentage (Ratio)
system.mem_ctrls.dram.busUtilRead                0.33                       # Data bus utilization in percentage for reads (Ratio)
system.mem_ctrls.dram.busUtilWrite               0.22                       # Data bus utilization in percentage for writes (Ratio)
system.mem_ctrls.dram.pageHitRate               53.74                       # Row buffer hit rate, read and write combined (Ratio)
system.mem_ctrls.dram.power_state.pwrStateResidencyTicks::UNDEFINED 297854450500                       # Cumulative time (in ticks) in various power states (Tick)
system.mem_ctrls.dram.rank0.actEnergy       540512280                       # Energy for activate commands per rank (pJ) (Joule)
system.mem_ctrls.dram.rank0.preEnergy       287289090                       # Energy for precharge commands per rank (pJ) (Joule)
system.mem_ctrls.dram.rank0.readEnergy      700041300                       # Energy for read commands per rank (pJ) (Joule)
system.mem_ctrls.dram.rank0.writeEnergy     340036020                       # Energy for write commands per rank (pJ) (Joule)
system.mem_ctrls.dram.rank0.refreshEnergy 23511823920.000004                       # Energy for refresh commands per rank (pJ) (Joule)
system.mem_ctrls.dram.rank0.actBackEnergy  19888106550                       # Energy for active background per rank (pJ) (Joule)
system.mem_ctrls.dram.rank0.preBackEnergy  97628230080                       # Energy for precharge background per rank (pJ) (Joule)
system.mem_ctrls.dram.rank0.actPowerDownEnergy            0                       # Energy for active power-down per rank (pJ) (Joule)
system.mem_ctrls.dram.rank0.prePowerDownEnergy            0                       # Energy for precharge power-down per rank (pJ) (Joule)
system.mem_ctrls.dram.rank0.selfRefreshEnergy            0                       # Energy for self refresh per rank (pJ) (Joule)
system.mem_ctrls.dram.rank0.totalEnergy  142896039240                       # Total energy per rank (pJ) (Joule)
system.mem_ctrls.dram.rank0.averagePower   479.751231                       # Core power per rank (mW) (Watt)
system.mem_ctrls.dram.rank0.totalIdleTime            0                       # Total Idle time Per DRAM Rank (Tick)
system.mem_ctrls.dram.rank0.pwrStateTime::IDLE 253577221250                       # Time in different power states (Tick)
system.mem_ctrls.dram.rank0.pwrStateTime::REF   9945780000                       # Time in different power states (Tick)
system.mem_ctrls.dram.rank0.pwrStateTime::SREF            0                       # Time in different power states (Tick)
system.mem_ctrls.dram.rank0.pwrStateTime::PRE_PDN            0                       # Time in different power states (Tick)
system.mem_ctrls.dram.rank0.pwrStateTime::ACT  34331449250                       # Time in different power states (Tick)
system.mem_ctrls.dram.rank0.pwrStateTime::ACT_PDN            0                       # Time in different power states (Tick)
system.mem_ctrls.dram.rank1.actEnergy       543532500                       # Energy for activate commands per rank (pJ) (Joule)
system.mem_ctrls.dram.rank1.preEnergy       288894375                       # Energy for precharge commands per rank (pJ) (Joule)
system.mem_ctrls.dram.rank1.readEnergy      711008340                       # Energy for read commands per rank (pJ) (Joule)
system.mem_ctrls.dram.rank1.writeEnergy     341722080                       # Energy for write commands per rank (pJ) (Joule)
system.mem_ctrls.dram.rank1.refreshEnergy 23511823920.000004                       # Energy for refresh commands per rank (pJ) (Joule)
system.mem_ctrls.dram.rank1.actBackEnergy  20252096010                       # Energy for active background per rank (pJ) (Joule)
system.mem_ctrls.dram.rank1.preBackEnergy  97321712640                       # Energy for precharge background per rank (pJ) (Joule)
system.mem_ctrls.dram.rank1.actPowerDownEnergy            0                       # Energy for active power-down per rank (pJ) (Joule)
system.mem_ctrls.dram.rank1.prePowerDownEnergy            0                       # Energy for precharge power-down per rank (pJ) (Joule)
system.mem_ctrls.dram.rank1.selfRefreshEnergy            0                       # Energy for self refresh per rank (pJ) (Joule)
system.mem_ctrls.dram.rank1.totalEnergy  142970789865                       # Total energy per rank (pJ) (Joule)
system.mem_ctrls.dram.rank1.averagePower   480.002194                       # Core power per rank (mW) (Watt)
system.mem_ctrls.dram.rank1.totalIdleTime            0                       # Total Idle time Per DRAM Rank (Tick)
system.mem_ctrls.dram.rank1.pwrStateTime::IDLE 252781984750                       # Time in different power states (Tick)
system.mem_ctrls.dram.rank1.pwrStateTime::REF   9945780000                       # Time in different power states (Tick)
system.mem_ctrls.dram.rank1.pwrStateTime::SREF            0                       # Time in different power states (Tick)
system.mem_ctrls.dram.rank1.pwrStateTime::PRE_PDN            0                       # Time in different power states (Tick)
system.mem_ctrls.dram.rank1.pwrStateTime::ACT  35126685750                       # Time in different power states (Tick)
system.mem_ctrls.dram.rank1.pwrStateTime::ACT_PDN            0                       # Time in different power states (Tick)
system.mem_ctrls.power_state.pwrStateResidencyTicks::UNDEFINED 297854450500                       # Cumulative time (in ticks) in various power states (Tick)
system.membus.transDist::ReadResp              109726                       # Transaction distribution (Count)
system.membus.transDist::WritebackDirty        130620                       # Transaction distribution (Count)
system.membus.transDist::CleanEvict             34377                       # Transaction distribution (Count)
system.membus.transDist::ReadExReq              88384                       # Transaction distribution (Count)
system.membus.transDist::ReadExResp             88384                       # Transaction distribution (Count)
system.membus.transDist::ReadSharedReq         109726                       # Transaction distribution (Count)
system.membus.pktCount_system.l2.mem_side_port::system.mem_ctrls.port       561217                       # Packet count per connected requestor and responder (Count)
system.membus.pktCount_system.l2.mem_side_port::total       561217                       # Packet count per connected requestor and responder (Count)
system.membus.pktCount::total                  561217                       # Packet count per connected requestor and responder (Count)
system.membus.pktSize_system.l2.mem_side_port::system.mem_ctrls.port     21038720                       # Cumulative packet size per connected requestor and responder (Byte)
system.membus.pktSize_system.l2.mem_side_port::total     21038720                       # Cumulative packet size per connected requestor and responder (Byte)
system.membus.pktSize::total                 21038720                       # Cumulative packet size per connected requestor and responder (Byte)
system.membus.snoops                                0                       # Total snoops (Count)
system.membus.snoopTraffic                          0                       # Total snoop traffic (Byte)
system.membus.snoopFanout::samples             198110                       # Request fanout histogram (Count)
system.membus.snoopFanout::mean                     0                       # Request fanout histogram (Count)
system.membus.snoopFanout::stdev                    0                       # Request fanout histogram (Count)
system.membus.snoopFanout::underflows               0      0.00%      0.00% # Request fanout histogram (Count)
system.membus.snoopFanout::0                   198110    100.00%    100.00% # Request fanout histogram (Count)
system.membus.snoopFanout::1                        0      0.00%    100.00% # Request fanout histogram (Count)
system.membus.snoopFanout::overflows                0      0.00%    100.00% # Request fanout histogram (Count)
system.membus.snoopFanout::min_value                0                       # Request fanout histogram (Count)
system.membus.snoopFanout::max_value                0                       # Request fanout histogram (Count)
system.membus.snoopFanout::total               198110                       # Request fanout histogram (Count)
system.membus.power_state.pwrStateResidencyTicks::UNDEFINED 297854450500                       # Cumulative time (in ticks) in various power states (Tick)
system.membus.reqLayer2.occupancy           926825000                       # Layer occupancy (ticks) (Tick)
system.membus.reqLayer2.utilization               0.0                       # Layer utilization (Ratio)
system.membus.respLayer1.occupancy         1055230500                       # Layer occupancy (ticks) (Tick)
system.membus.respLayer1.utilization              0.0                       # Layer utilization (Ratio)
system.membus.snoop_filter.totRequests         363107                       # Total number of requests made to the snoop filter. (Count)
system.membus.snoop_filter.hitSingleRequests       165001                       # Number of requests hitting in the snoop filter with a single holder of the requested data. (Count)
system.membus.snoop_filter.hitMultiRequests            0                       # Number of requests hitting in the snoop filter with multiple (>1) holders of the requested data. (Count)
system.membus.snoop_filter.totSnoops                0                       # Total number of snoops made to the snoop filter. (Count)
system.membus.snoop_filter.hitSingleSnoops            0                       # Number of snoops hitting in the snoop filter with a single holder of the requested data. (Count)
system.membus.snoop_filter.hitMultiSnoops            0                       # Number of snoops hitting in the snoop filter with multiple (>1) holders of the requested data. (Count)
system.tol2bus.transDist::ReadResp            2005953                       # Transaction distribution (Count)
system.tol2bus.transDist::WritebackDirty      1726980                       # Transaction distribution (Count)
system.tol2bus.transDist::WritebackClean         1796                       # Transaction distribution (Count)
system.tol2bus.transDist::CleanEvict           627804                       # Transaction distribution (Count)
system.tol2bus.transDist::UpgradeReq                2                       # Transaction distribution (Count)
system.tol2bus.transDist::UpgradeResp               2                       # Transaction distribution (Count)
system.tol2bus.transDist::ReadExReq            186026                       # Transaction distribution (Count)
system.tol2bus.transDist::ReadExResp           186026                       # Transaction distribution (Count)
system.tol2bus.transDist::ReadCleanReq           2310                       # Transaction distribution (Count)
system.tol2bus.transDist::ReadSharedReq       2003643                       # Transaction distribution (Count)
system.tol2bus.pktCount_system.cpu.icache.mem_side_port::system.l2.cpu_side_port         6411                       # Packet count per connected requestor and responder (Count)
system.tol2bus.pktCount_system.cpu.dcache.mem_side_port::system.l2.cpu_side_port      6567987                       # Packet count per connected requestor and responder (Count)
system.tol2bus.pktCount::total                6574398                       # Packet count per connected requestor and responder (Count)
system.tol2bus.pktSize_system.cpu.icache.mem_side_port::system.l2.cpu_side_port       262464                       # Cumulative packet size per connected requestor and responder (Byte)
system.tol2bus.pktSize_system.cpu.dcache.mem_side_port::system.l2.cpu_side_port    242305856                       # Cumulative packet size per connected requestor and responder (Byte)
system.tol2bus.pktSize::total               242568320                       # Cumulative packet size per connected requestor and responder (Byte)
system.tol2bus.snoops                          166144                       # Total snoops (Count)
system.tol2bus.snoopTraffic                   8360000                       # Total snoop traffic (Byte)
system.tol2bus.snoopFanout::samples           2358120                       # Request fanout histogram (Count)
system.tol2bus.snoopFanout::mean             0.000508                       # Request fanout histogram (Count)
system.tol2bus.snoopFanout::stdev            0.022534                       # Request fanout histogram (Count)
system.tol2bus.snoopFanout::underflows              0      0.00%      0.00% # Request fanout histogram (Count)
system.tol2bus.snoopFanout::0                 2356922     99.95%     99.95% # Request fanout histogram (Count)
system.tol2bus.snoopFanout::1                    1198      0.05%    100.00% # Request fanout histogram (Count)
system.tol2bus.snoopFanout::2                       0      0.00%    100.00% # Request fanout histogram (Count)
system.tol2bus.snoopFanout::3                       0      0.00%    100.00% # Request fanout histogram (Count)
system.tol2bus.snoopFanout::4                       0      0.00%    100.00% # Request fanout histogram (Count)
system.tol2bus.snoopFanout::overflows               0      0.00%    100.00% # Request fanout histogram (Count)
system.tol2bus.snoopFanout::min_value               0                       # Request fanout histogram (Count)
system.tol2bus.snoopFanout::max_value               1                       # Request fanout histogram (Count)
system.tol2bus.snoopFanout::total             2358120                       # Request fanout histogram (Count)
system.tol2bus.power_state.pwrStateResidencyTicks::UNDEFINED 297854450500                       # Cumulative time (in ticks) in various power states (Tick)
system.tol2bus.reqLayer0.occupancy         3789367000                       # Layer occupancy (ticks) (Tick)
system.tol2bus.reqLayer0.utilization              0.0                       # Layer utilization (Ratio)
system.tol2bus.respLayer0.occupancy           3470489                       # Layer occupancy (ticks) (Tick)
system.tol2bus.respLayer0.utilization             0.0                       # Layer utilization (Ratio)
system.tol2bus.respLayer1.occupancy        3284504999                       # Layer occupancy (ticks) (Tick)
system.tol2bus.respLayer1.utilization             0.0                       # Layer utilization (Ratio)
system.tol2bus.snoop_filter.totRequests       4382422                       # Total number of requests made to the snoop filter. (Count)
system.tol2bus.snoop_filter.hitSingleRequests      2190441                       # Number of requests hitting in the snoop filter with a single holder of the requested data. (Count)
system.tol2bus.snoop_filter.hitMultiRequests           38                       # Number of requests hitting in the snoop filter with multiple (>1) holders of the requested data. (Count)
system.tol2bus.snoop_filter.totSnoops            1160                       # Total number of snoops made to the snoop filter. (Count)
system.tol2bus.snoop_filter.hitSingleSnoops         1160                       # Number of snoops hitting in the snoop filter with a single holder of the requested data. (Count)
system.tol2bus.snoop_filter.hitMultiSnoops            0                       # Number of snoops hitting in the snoop filter with multiple (>1) holders of the requested data. (Count)
system.voltage_domain.voltage                       1                       # Voltage in Volts (Volt)
system.workload.inst.arm                            0                       # number of arm instructions executed (Count)
system.workload.inst.quiesce                        0                       # number of quiesce instructions executed (Count)

---------- End Simulation Statistics   ----------
